# generated using pymatgen
data_H9C8NO2
_symmetry_space_group_name_H-M   'P 1'
_cell_length_a   7.07299995
_cell_length_b   55.03957820
_cell_length_c   15.63548660
_cell_angle_alpha   71.77994537
_cell_angle_beta   110.42028046
_cell_angle_gamma   110.42028046
_symmetry_Int_Tables_number   1
_chemical_formula_structural   H9C8NO2
_chemical_formula_sum   'H144 C128 N16 O32'
_cell_volume   5217.98754118
_cell_formula_units_Z   16
loop_
 _symmetry_equiv_pos_site_id
 _symmetry_equiv_pos_as_xyz
  1  'x, y, z'
loop_
 _atom_site_type_symbol
 _atom_site_label
 _atom_site_symmetry_multiplicity
 _atom_site_fract_x
 _atom_site_fract_y
 _atom_site_fract_z
 _atom_site_occupancy
  C  C0  1  0.85039997  0.22445362  0.64801502  1
  C  C1  1  0.14960004  0.20166213  0.85198498  1
  C  C2  1  0.14960003  0.24202947  0.20988500  1
  C  C3  1  0.85039997  0.18408626  0.29011500  1
  C  C4  1  0.75680000  0.23538064  0.68616009  1
  C  C5  1  0.24319996  0.19073507  0.81383997  1
  C  C6  1  0.24319999  0.23119334  0.17141999  1
  C  C7  1  0.75680000  0.19492237  0.32857999  1
  C  C8  1  0.82960004  0.26247309  0.68601000  1
  C  C9  1  0.17039995  0.16364264  0.81399000  1
  C  C10  1  0.17040001  0.23123596  0.07605000  1
  C  C11  1  0.82959998  0.19487977  0.42394999  1
  C  C12  1  0.99570006  0.27851494  0.64880002  1
  C  C13  1  0.00429996  0.14760081  0.85119998  1
  C  C14  1  0.00430004  0.24180647  0.01958000  1
  C  C15  1  0.99570000  0.18430926  0.48041999  1
  C  C16  1  0.09210002  0.26746858  0.61245501  1
  C  C17  1  0.90789998  0.15864715  0.88754499  1
  C  C18  1  0.90789998  0.25213125  0.05846500  1
  C  C19  1  0.09210004  0.17398449  0.44153500  1
  C  C20  1  0.01940000  0.24051959  0.61227000  1
  C  C21  1  0.98059994  0.18559613  0.88773000  1
  C  C22  1  0.98060000  0.25218381  0.15333000  1
  C  C23  1  0.01940000  0.17393192  0.34667000  1
  C  C24  1  0.60170001  0.17957370  0.64811999  1
  C  C25  1  0.39829999  0.24654203  0.85188001  1
  C  C26  1  0.39829999  0.24199965  0.36787000  1
  C  C27  1  0.60170001  0.18411608  0.13213000  1
  C  C28  1  0.58319998  0.15225256  0.63964504  1
  C  C29  1  0.41679999  0.27386317  0.86035502  1
  C  C30  1  0.41680002  0.24440720  0.46404499  1
  C  C31  1  0.58319998  0.18170852  0.03595500  1
  N  N32  1  0.78771001  0.19732994  0.64447498  1
  N  N33  1  0.21228999  0.22878580  0.85552502  1
  N  N34  1  0.21229000  0.24303511  0.30536500  1
  N  N35  1  0.78771001  0.18308063  0.19463500  1
  O  O36  1  0.05870003  0.30492558  0.64850003  1
  O  O37  1  0.94129997  0.12119015  0.85149997  1
  O  O38  1  0.94129997  0.24189169  0.92660999  1
  O  O39  1  0.05869997  0.18422404  0.57339001  1
  O  O40  1  0.45549998  0.18481066  0.65797502  1
  O  O41  1  0.54449999  0.24130505  0.84202504  1
  O  O42  1  0.54449999  0.23920006  0.34943500  1
  O  O43  1  0.45549998  0.18691567  0.15056500  1
  H  H44  1  0.62840003  0.22319942  0.71550000  1
  H  H45  1  0.37160000  0.20291630  0.78450000  1
  H  H46  1  0.37160000  0.22285853  0.21430001  1
  H  H47  1  0.62840003  0.20325720  0.28570002  1
  H  H48  1  0.75779998  0.27075394  0.71649998  1
  H  H49  1  0.24220003  0.15536179  0.78350002  1
  H  H50  1  0.24219999  0.22257445  0.04690000  1
  H  H51  1  0.75779998  0.20354127  0.45310000  1
  H  H52  1  0.22340001  0.27968816  0.58455002  1
  H  H53  1  0.77660000  0.14642757  0.91544998  1
  H  H54  1  0.77660000  0.26005842  0.01545000  1
  H  H55  1  0.22340000  0.16605731  0.48455000  1
  H  H56  1  0.09229999  0.23196320  0.58295000  1
  H  H57  1  0.90770000  0.19415252  0.91705000  1
  H  H58  1  0.90770000  0.26051295  0.18345000  1
  H  H59  1  0.09230004  0.16560277  0.31654999  1
  H  H60  1  0.20009996  0.31349333  0.63884997  1
  H  H61  1  0.79990000  0.11262239  0.86115003  1
  H  H62  1  0.79990000  0.24463305  0.89644998  1
  H  H63  1  0.20009997  0.18148268  0.60355002  1
  H  H64  1  0.89179999  0.19112711  0.63210005  1
  H  H65  1  0.10820006  0.23498862  0.86790001  1
  H  H66  1  0.10819998  0.24655056  0.32720000  1
  H  H67  1  0.89179999  0.17956516  0.17280000  1
  H  H68  1  0.43160003  0.14468049  0.59460002  1
  H  H69  1  0.56840003  0.28143524  0.90539998  1
  H  H70  1  0.56840003  0.25720345  0.49070001  1
  H  H71  1  0.43160000  0.16891228  0.00930000  1
  H  H72  1  0.70609999  0.15199547  0.61484998  1
  H  H73  1  0.29389995  0.27412024  0.88515002  1
  H  H74  1  0.29390004  0.25145091  0.46494997  1
  H  H75  1  0.70609999  0.17466483  0.03505000  1
  H  H76  1  0.59140003  0.13899896  0.70840001  1
  H  H77  1  0.40859997  0.28711677  0.79159999  1
  H  H78  1  0.40860000  0.22487547  0.51069999  1
  H  H79  1  0.59140003  0.20124026  0.98930001  1
  C  C80  1  0.85039997  0.36649219  0.14801499  1
  C  C81  1  0.14960003  0.34370068  0.35198498  1
  C  C82  1  0.14960003  0.38406804  0.70988500  1
  C  C83  1  0.85039997  0.32612484  0.79011500  1
  C  C84  1  0.75680000  0.37741923  0.18616000  1
  C  C85  1  0.24320000  0.33277365  0.31384003  1
  C  C86  1  0.24320000  0.37323193  0.67141998  1
  C  C87  1  0.75680000  0.33696095  0.82858002  1
  C  C88  1  0.82959998  0.40451165  0.18601000  1
  C  C89  1  0.17040002  0.30568123  0.31399000  1
  C  C90  1  0.17040002  0.37327454  0.57604998  1
  C  C91  1  0.82959998  0.33691834  0.92395002  1
  C  C92  1  0.99570000  0.42055349  0.14880000  1
  C  C93  1  0.00430000  0.28963938  0.35119998  1
  C  C94  1  0.00430000  0.38384504  0.51958001  1
  C  C95  1  0.99570000  0.32634784  0.98041999  1
  C  C96  1  0.09210000  0.40950716  0.11245501  1
  C  C97  1  0.90789998  0.30068572  0.38754499  1
  C  C98  1  0.90789998  0.39416983  0.55846500  1
  C  C99  1  0.09210000  0.31602305  0.94153500  1
  C  C100  1  0.01940000  0.38255819  0.11227000  1
  C  C101  1  0.98060000  0.32763469  0.38773000  1
  C  C102  1  0.98060000  0.39422239  0.65332997  1
  C  C103  1  0.01940000  0.31597049  0.84667003  1
  C  C104  1  0.60170001  0.32161227  0.14812005  1
  C  C105  1  0.39829999  0.38858061  0.35187998  1
  C  C106  1  0.39829999  0.38403824  0.86786997  1
  C  C107  1  0.60170001  0.32615467  0.63213003  1
  C  C108  1  0.58319998  0.29429113  0.13964510  1
  C  C109  1  0.41680002  0.41590175  0.36035499  1
  C  C110  1  0.41680002  0.38644578  0.96404505  1
  C  C111  1  0.58319998  0.32374710  0.53595495  1
  N  N112  1  0.78771001  0.33936848  0.14447500  1
  N  N113  1  0.21228999  0.37082436  0.35552502  1
  N  N114  1  0.21228999  0.38507369  0.80536503  1
  N  N115  1  0.78771001  0.32511919  0.69463503  1
  O  O116  1  0.05870000  0.44696415  0.14849998  1
  O  O117  1  0.94129997  0.26322873  0.35150003  1
  O  O118  1  0.94129997  0.38393028  0.42660999  1
  O  O119  1  0.05870000  0.32626260  0.07338999  1
  O  O120  1  0.45550001  0.32684924  0.15797496  1
  O  O121  1  0.54449999  0.38334364  0.34202501  1
  O  O122  1  0.54449999  0.38123865  0.84943497  1
  O  O123  1  0.45550001  0.32895423  0.65056503  1
  H  H124  1  0.62840003  0.36523802  0.21550001  1
  H  H125  1  0.37159997  0.34495486  0.28450000  1
  H  H126  1  0.37159997  0.36489710  0.71429998  1
  H  H127  1  0.62840003  0.34529578  0.78570002  1
  H  H128  1  0.75779998  0.41279250  0.21650001  1
  H  H129  1  0.24220002  0.29740038  0.28349996  1
  H  H130  1  0.24220002  0.36461301  0.54690003  1
  H  H131  1  0.75779998  0.34557987  0.95309997  1
  H  H132  1  0.22340000  0.42172674  0.08455001  1
  H  H133  1  0.77660000  0.28846614  0.41544998  1
  H  H134  1  0.77660000  0.40209700  0.51545000  1
  H  H135  1  0.22340000  0.30809588  0.98455000  1
  H  H136  1  0.09230000  0.37400178  0.08295000  1
  H  H137  1  0.90770000  0.33619110  0.41705000  1
  H  H138  1  0.90770000  0.40255153  0.68344998  1
  H  H139  1  0.09230000  0.30764135  0.81655002  1
  H  H140  1  0.20010000  0.45553190  0.13884999  1
  H  H141  1  0.79990000  0.25466097  0.36115003  1
  H  H142  1  0.79990000  0.38667162  0.39645004  1
  H  H143  1  0.20010000  0.32352126  0.10355000  1
  H  H144  1  0.89179999  0.33316570  0.13210000  1
  H  H145  1  0.10820001  0.37702718  0.36790001  1
  H  H146  1  0.10820001  0.38858914  0.82720000  1
  H  H147  1  0.89179999  0.32160374  0.67280000  1
  H  H148  1  0.43160000  0.28671907  0.09459996  1
  H  H149  1  0.56840003  0.42347381  0.40539998  1
  H  H150  1  0.56840003  0.39924204  0.99070001  1
  H  H151  1  0.43160000  0.31095084  0.50929999  1
  H  H152  1  0.70609999  0.29403403  0.11485004  1
  H  H153  1  0.29390001  0.41615881  0.38514999  1
  H  H154  1  0.29390001  0.39348945  0.96494997  1
  H  H155  1  0.70609999  0.31670343  0.53505003  1
  H  H156  1  0.59140003  0.28103753  0.20840001  1
  H  H157  1  0.40859997  0.42915535  0.29159999  1
  H  H158  1  0.40859997  0.36691405  0.01070000  1
  H  H159  1  0.59140003  0.34327883  0.48930001  1
  C  C160  1  0.85039997  0.50853077  0.64801502  1
  C  C161  1  0.14960004  0.48573928  0.85198498  1
  C  C162  1  0.14960003  0.52610662  0.20988500  1
  C  C163  1  0.85039997  0.46816341  0.29011500  1
  C  C164  1  0.75680000  0.51945778  0.68616009  1
  C  C165  1  0.24319996  0.47481222  0.81383997  1
  C  C166  1  0.24319999  0.51527049  0.17141999  1
  C  C167  1  0.75680000  0.47899952  0.32857999  1
  C  C168  1  0.82960004  0.54655024  0.68601000  1
  C  C169  1  0.17039995  0.44771979  0.81399000  1
  C  C170  1  0.17040001  0.51531311  0.07605000  1
  C  C171  1  0.82959998  0.47895692  0.42394999  1
  C  C172  1  0.99570006  0.56259209  0.64880002  1
  C  C173  1  0.00429996  0.43167796  0.85119998  1
  C  C174  1  0.00430004  0.52588362  0.01958000  1
  C  C175  1  0.99570000  0.46838641  0.48041999  1
  C  C176  1  0.09210002  0.55154573  0.61245501  1
  C  C177  1  0.90789998  0.44272430  0.88754499  1
  C  C178  1  0.90789998  0.53620840  0.05846500  1
  C  C179  1  0.09210004  0.45806164  0.44153500  1
  C  C180  1  0.01940000  0.52459674  0.61227000  1
  C  C181  1  0.98059994  0.46967328  0.88773000  1
  C  C182  1  0.98060000  0.53626096  0.15333000  1
  C  C183  1  0.01940000  0.45800907  0.34667000  1
  C  C184  1  0.60170001  0.46365085  0.64811999  1
  C  C185  1  0.39829999  0.53061918  0.85188001  1
  C  C186  1  0.39829999  0.52607680  0.36787000  1
  C  C187  1  0.60170001  0.46819323  0.13213000  1
  C  C188  1  0.58319998  0.43632971  0.63964504  1
  C  C189  1  0.41679999  0.55794032  0.86035502  1
  C  C190  1  0.41680002  0.52848435  0.46404499  1
  C  C191  1  0.58319998  0.46578567  0.03595500  1
  N  N192  1  0.78771001  0.48140709  0.64447498  1
  N  N193  1  0.21228999  0.51286295  0.85552502  1
  N  N194  1  0.21229000  0.52711226  0.30536500  1
  N  N195  1  0.78771001  0.46715778  0.19463500  1
  O  O196  1  0.05870003  0.58900273  0.64850003  1
  O  O197  1  0.94129997  0.40526730  0.85149997  1
  O  O198  1  0.94129997  0.52596884  0.92660999  1
  O  O199  1  0.05869997  0.46830119  0.57339001  1
  O  O200  1  0.45549998  0.46888781  0.65797502  1
  O  O201  1  0.54449999  0.52538220  0.84202504  1
  O  O202  1  0.54449999  0.52327721  0.34943500  1
  O  O203  1  0.45549998  0.47099282  0.15056500  1
  H  H204  1  0.62840003  0.50727657  0.71550000  1
  H  H205  1  0.37160000  0.48699345  0.78450000  1
  H  H206  1  0.37160000  0.50693568  0.21430001  1
  H  H207  1  0.62840003  0.48733435  0.28570002  1
  H  H208  1  0.75779998  0.55483109  0.71649998  1
  H  H209  1  0.24220003  0.43943894  0.78350002  1
  H  H210  1  0.24219999  0.50665160  0.04690000  1
  H  H211  1  0.75779998  0.48761842  0.45310000  1
  H  H212  1  0.22340001  0.56376531  0.58455002  1
  H  H213  1  0.77660000  0.43050472  0.91544998  1
  H  H214  1  0.77660000  0.54413557  0.01545000  1
  H  H215  1  0.22340000  0.45013445  0.48455000  1
  H  H216  1  0.09229999  0.51604035  0.58295000  1
  H  H217  1  0.90770000  0.47822967  0.91705000  1
  H  H218  1  0.90770000  0.54459010  0.18345000  1
  H  H219  1  0.09230004  0.44967992  0.31654999  1
  H  H220  1  0.20009996  0.59757048  0.63884997  1
  H  H221  1  0.79990000  0.39669954  0.86115003  1
  H  H222  1  0.79990000  0.52871020  0.89644998  1
  H  H223  1  0.20009997  0.46555983  0.60355002  1
  H  H224  1  0.89179999  0.47520426  0.63210005  1
  H  H225  1  0.10820006  0.51906577  0.86790001  1
  H  H226  1  0.10819998  0.53062771  0.32720000  1
  H  H227  1  0.89179999  0.46364231  0.17280000  1
  H  H228  1  0.43160003  0.42875764  0.59460002  1
  H  H229  1  0.56840003  0.56551239  0.90539998  1
  H  H230  1  0.56840003  0.54128060  0.49070001  1
  H  H231  1  0.43160000  0.45298943  0.00930000  1
  H  H232  1  0.70609999  0.43607262  0.61484998  1
  H  H233  1  0.29389995  0.55819739  0.88515002  1
  H  H234  1  0.29390004  0.53552806  0.46494997  1
  H  H235  1  0.70609999  0.45874198  0.03505000  1
  H  H236  1  0.59140003  0.42307611  0.70840001  1
  H  H237  1  0.40859997  0.57119392  0.79159999  1
  H  H238  1  0.40860000  0.50895262  0.51069999  1
  H  H239  1  0.59140003  0.48531741  0.98930001  1
  C  C240  1  0.85039997  0.65056934  0.14801499  1
  C  C241  1  0.14960003  0.62777783  0.35198498  1
  C  C242  1  0.14960003  0.66814519  0.70988500  1
  C  C243  1  0.85039997  0.61020199  0.79011500  1
  C  C244  1  0.75680000  0.66149638  0.18616000  1
  C  C245  1  0.24320000  0.61685080  0.31384003  1
  C  C246  1  0.24320000  0.65730908  0.67141998  1
  C  C247  1  0.75680000  0.62103809  0.82858002  1
  C  C248  1  0.82959998  0.68858880  0.18601000  1
  C  C249  1  0.17040002  0.58975838  0.31399000  1
  C  C250  1  0.17040002  0.65735168  0.57604998  1
  C  C251  1  0.82959998  0.62099549  0.92395002  1
  C  C252  1  0.99570000  0.70463064  0.14880000  1
  C  C253  1  0.00430000  0.57371653  0.35119998  1
  C  C254  1  0.00430000  0.66792219  0.51958001  1
  C  C255  1  0.99570000  0.61042499  0.98041999  1
  C  C256  1  0.09210000  0.69358431  0.11245501  1
  C  C257  1  0.90789998  0.58476287  0.38754499  1
  C  C258  1  0.90789998  0.67824698  0.55846500  1
  C  C259  1  0.09210000  0.60010020  0.94153500  1
  C  C260  1  0.01940000  0.66663534  0.11227000  1
  C  C261  1  0.98060000  0.61171184  0.38773000  1
  C  C262  1  0.98060000  0.67829954  0.65332997  1
  C  C263  1  0.01940000  0.60004764  0.84667003  1
  C  C264  1  0.60170001  0.60568942  0.14812005  1
  C  C265  1  0.39829999  0.67265776  0.35187998  1
  C  C266  1  0.39829999  0.66811539  0.86786997  1
  C  C267  1  0.60170001  0.61023182  0.63213003  1
  C  C268  1  0.58319998  0.57836828  0.13964510  1
  C  C269  1  0.41680002  0.69997890  0.36035499  1
  C  C270  1  0.41680002  0.67052293  0.96404505  1
  C  C271  1  0.58319998  0.60782425  0.53595495  1
  N  N272  1  0.78771001  0.62344563  0.14447500  1
  N  N273  1  0.21228999  0.65490151  0.35552502  1
  N  N274  1  0.21228999  0.66915084  0.80536503  1
  N  N275  1  0.78771001  0.60919634  0.69463503  1
  O  O276  1  0.05870000  0.73104130  0.14849998  1
  O  O277  1  0.94129997  0.54730588  0.35150003  1
  O  O278  1  0.94129997  0.66800743  0.42660999  1
  O  O279  1  0.05870000  0.61033975  0.07338999  1
  O  O280  1  0.45550001  0.61092639  0.15797496  1
  O  O281  1  0.54449999  0.66742079  0.34202501  1
  O  O282  1  0.54449999  0.66531580  0.84943497  1
  O  O283  1  0.45550001  0.61303138  0.65056503  1
  H  H284  1  0.62840003  0.64931517  0.21550001  1
  H  H285  1  0.37159997  0.62903201  0.28450000  1
  H  H286  1  0.37159997  0.64897425  0.71429998  1
  H  H287  1  0.62840003  0.62937293  0.78570002  1
  H  H288  1  0.75779998  0.69686965  0.21650001  1
  H  H289  1  0.24220002  0.58147753  0.28349996  1
  H  H290  1  0.24220002  0.64869016  0.54690003  1
  H  H291  1  0.75779998  0.62965702  0.95309997  1
  H  H292  1  0.22340000  0.70580388  0.08455001  1
  H  H293  1  0.77660000  0.57254329  0.41544998  1
  H  H294  1  0.77660000  0.68617415  0.51545000  1
  H  H295  1  0.22340000  0.59217303  0.98455000  1
  H  H296  1  0.09230000  0.65807893  0.08295000  1
  H  H297  1  0.90770000  0.62026825  0.41705000  1
  H  H298  1  0.90770000  0.68662868  0.68344998  1
  H  H299  1  0.09230000  0.59171850  0.81655002  1
  H  H300  1  0.20010000  0.73960905  0.13884999  1
  H  H301  1  0.79990000  0.53873812  0.36115003  1
  H  H302  1  0.79990000  0.67074877  0.39645004  1
  H  H303  1  0.20010000  0.60759841  0.10355000  1
  H  H304  1  0.89179999  0.61724285  0.13210000  1
  H  H305  1  0.10820001  0.66110433  0.36790001  1
  H  H306  1  0.10820001  0.67266629  0.82720000  1
  H  H307  1  0.89179999  0.60568089  0.67280000  1
  H  H308  1  0.43160000  0.57079622  0.09459996  1
  H  H309  1  0.56840003  0.70755096  0.40539998  1
  H  H310  1  0.56840003  0.68331919  0.99070001  1
  H  H311  1  0.43160000  0.59502799  0.50929999  1
  H  H312  1  0.70609999  0.57811118  0.11485004  1
  H  H313  1  0.29390001  0.70023596  0.38514999  1
  H  H314  1  0.29390001  0.67756660  0.96494997  1
  H  H315  1  0.70609999  0.60078057  0.53505003  1
  H  H316  1  0.59140003  0.56511468  0.20840001  1
  H  H317  1  0.40859997  0.71323250  0.29159999  1
  H  H318  1  0.40859997  0.65099120  0.01070000  1
  H  H319  1  0.59140003  0.62735598  0.48930001  1
