# generated using pymatgen
data_H9C8NO2
_symmetry_space_group_name_H-M   'P 1'
_cell_length_a   7.07299995
_cell_length_b   18.33200073
_cell_length_c   47.83675217
_cell_angle_alpha   90.00000000
_cell_angle_beta   115.51000977
_cell_angle_gamma   90.00000000
_symmetry_Int_Tables_number   1
_chemical_formula_structural   H9C8NO2
_chemical_formula_sum   'H72 C64 N8 O16'
_cell_volume   5597.92735397
_cell_formula_units_Z   8
loop_
 _symmetry_equiv_pos_site_id
 _symmetry_equiv_pos_as_xyz
  1  'x, y, z'
loop_
 _atom_site_type_symbol
 _atom_site_label
 _atom_site_symmetry_multiplicity
 _atom_site_fract_x
 _atom_site_fract_y
 _atom_site_fract_z
 _atom_site_occupancy
  C  C0  1  0.14960001  0.42895001  0.14878115  1
  C  C1  1  0.14960003  0.32104999  0.01638296  1
  C  C2  1  0.24320000  0.42879000  0.12849510  1
  C  C3  1  0.24320000  0.32121000  0.26089330  1
  C  C4  1  0.17040001  0.38102999  0.10328118  1
  C  C5  1  0.17040001  0.36897001  0.23567938  1
  C  C6  1  0.00429999  0.33419001  0.09818121  1
  C  C7  1  0.00430002  0.41580999  0.23057942  1
  C  C8  1  0.90789998  0.33546001  0.11810183  1
  C  C9  1  0.90789998  0.41453999  0.25050004  1
  C  C10  1  0.98060000  0.38279998  0.14327073  1
  C  C11  1  0.98060000  0.36720002  0.01087254  1
  C  C12  1  0.39830002  0.50799501  0.19058722  1
  C  C13  1  0.39829999  0.24200502  0.05818901  1
  C  C14  1  0.41680002  0.55184501  0.21829816  1
  C  C15  1  0.41680002  0.19815499  0.08589995  1
  N  N16  1  0.21229000  0.47492000  0.17500129  1
  N  N17  1  0.21228999  0.27508000  0.04260310  1
  O  O18  1  0.94129997  0.28755498  0.07364253  1
  O  O19  1  0.94129997  0.46244505  0.20604073  1
  O  O20  1  0.54449999  0.50370502  0.18309612  1
  O  O21  1  0.54449999  0.24629502  0.05069793  1
  H  H22  1  0.37159997  0.46489999  0.13208044  1
  H  H23  1  0.37159997  0.28510001  0.26447864  1
  H  H24  1  0.24220002  0.38170001  0.08748873  1
  H  H25  1  0.24220003  0.36829999  0.21988694  1
  H  H26  1  0.77660000  0.30000001  0.11410076  1
  H  H27  1  0.77660000  0.44999999  0.24649896  1
  H  H28  1  0.90770000  0.38319999  0.15901024  1
  H  H29  1  0.90770000  0.36680001  0.02661204  1
  H  H30  1  0.79990000  0.26765001  0.06821156  1
  H  H31  1  0.79990000  0.48234999  0.20060976  1
  H  H32  1  0.10820003  0.47964999  0.18405998  1
  H  H33  1  0.10820001  0.27035001  0.05166178  1
  H  H34  1  0.56840003  0.54264998  0.23728405  1
  H  H35  1  0.56840003  0.20735000  0.10488585  1
  H  H36  1  0.29390004  0.53990000  0.22510342  1
  H  H37  1  0.29390001  0.21010000  0.09270521  1
  H  H38  1  0.40859997  0.60955000  0.21244615  1
  H  H39  1  0.40859997  0.14045000  0.08004795  1
  C  C40  1  0.85039997  0.57104999  0.11601525  1
  C  C41  1  0.85039997  0.67895001  0.24841345  1
  C  C42  1  0.75680000  0.57121003  0.13630130  1
  C  C43  1  0.75680000  0.67878997  0.00390310  1
  C  C44  1  0.82959998  0.61896998  0.16151522  1
  C  C45  1  0.82959998  0.63102996  0.02911702  1
  C  C46  1  0.99570000  0.66580999  0.16661519  1
  C  C47  1  0.99570000  0.58419001  0.03421699  1
  C  C48  1  0.09209999  0.66453999  0.14669456  1
  C  C49  1  0.09210000  0.58546001  0.01429636  1
  C  C50  1  0.01940000  0.61720002  0.12152566  1
  C  C51  1  0.01940000  0.63279998  0.25392387  1
  C  C52  1  0.60170001  0.49200499  0.07420919  1
  C  C53  1  0.60170001  0.75799501  0.20660740  1
  C  C54  1  0.58319998  0.44815493  0.04649825  1
  C  C55  1  0.58319998  0.80184501  0.17889645  1
  N  N56  1  0.78771001  0.52508003  0.08979510  1
  N  N57  1  0.78771001  0.72492003  0.22219331  1
  O  O58  1  0.05869997  0.71244502  0.19115385  1
  O  O59  1  0.05869999  0.53755498  0.05875567  1
  O  O60  1  0.45550001  0.49629498  0.08170028  1
  O  O61  1  0.45550004  0.75370502  0.21409849  1
  H  H62  1  0.62840003  0.53509998  0.13271596  1
  H  H63  1  0.62840003  0.71490002  0.00031776  1
  H  H64  1  0.75779998  0.61830002  0.17730767  1
  H  H65  1  0.75779998  0.63170004  0.04490947  1
  H  H66  1  0.22340000  0.69999999  0.15069564  1
  H  H67  1  0.22340000  0.55000001  0.01829744  1
  H  H68  1  0.09230000  0.61680001  0.10578617  1
  H  H69  1  0.09230004  0.63319999  0.23818438  1
  H  H70  1  0.20010003  0.73234999  0.19658486  1
  H  H71  1  0.20010000  0.51765001  0.06418665  1
  H  H72  1  0.89179993  0.52034998  0.08073642  1
  H  H73  1  0.89179999  0.72965002  0.21313460  1
  H  H74  1  0.43160000  0.45735002  0.02751235  1
  H  H75  1  0.43159997  0.79264998  0.15991055  1
  H  H76  1  0.70609999  0.46009994  0.03969298  1
  H  H77  1  0.70609999  0.78990000  0.17209119  1
  H  H78  1  0.59140003  0.39045000  0.05235025  1
  H  H79  1  0.59140003  0.85955000  0.18474846  1
  C  C80  1  0.14960001  0.42895001  0.41357755  1
  C  C81  1  0.14960003  0.32104999  0.28117936  1
  C  C82  1  0.24320000  0.42879000  0.39329151  1
  C  C83  1  0.24320000  0.32121000  0.52568971  1
  C  C84  1  0.17040001  0.38102999  0.36807759  1
  C  C85  1  0.17040001  0.36897001  0.50047579  1
  C  C86  1  0.00429999  0.33419001  0.36297761  1
  C  C87  1  0.00430002  0.41580999  0.49537583  1
  C  C88  1  0.90789998  0.33546001  0.38289824  1
  C  C89  1  0.90789998  0.41453999  0.51529645  1
  C  C90  1  0.98060000  0.38279998  0.40806714  1
  C  C91  1  0.98060000  0.36720002  0.27566895  1
  C  C92  1  0.39830002  0.50799501  0.45538363  1
  C  C93  1  0.39829999  0.24200502  0.32298541  1
  C  C94  1  0.41680002  0.55184501  0.48309456  1
  C  C95  1  0.41680002  0.19815499  0.35069636  1
  N  N96  1  0.21229000  0.47492000  0.43979769  1
  N  N97  1  0.21228999  0.27508000  0.30739950  1
  O  O98  1  0.94129997  0.28755498  0.33843894  1
  O  O99  1  0.94129997  0.46244505  0.47083714  1
  O  O100  1  0.54449999  0.50370502  0.44789253  1
  O  O101  1  0.54449999  0.24629502  0.31549433  1
  H  H102  1  0.37159997  0.46489999  0.39687684  1
  H  H103  1  0.37159997  0.28510001  0.52927505  1
  H  H104  1  0.24220002  0.38170001  0.35228513  1
  H  H105  1  0.24220003  0.36829999  0.48468335  1
  H  H106  1  0.77660000  0.30000001  0.37889717  1
  H  H107  1  0.77660000  0.44999999  0.51129537  1
  H  H108  1  0.90770000  0.38319999  0.42380664  1
  H  H109  1  0.90770000  0.36680001  0.29140844  1
  H  H110  1  0.79990000  0.26765001  0.33300796  1
  H  H111  1  0.79990000  0.48234999  0.46540616  1
  H  H112  1  0.10820003  0.47964999  0.44885639  1
  H  H113  1  0.10820001  0.27035001  0.31645819  1
  H  H114  1  0.56840003  0.54264998  0.50208046  1
  H  H115  1  0.56840003  0.20735000  0.36968226  1
  H  H116  1  0.29390004  0.53990000  0.48989982  1
  H  H117  1  0.29390001  0.21010000  0.35750162  1
  H  H118  1  0.40859997  0.60955000  0.47724255  1
  H  H119  1  0.40859997  0.14045000  0.34484436  1
  C  C120  1  0.85039997  0.57104999  0.38081166  1
  C  C121  1  0.85039997  0.67895001  0.51320986  1
  C  C122  1  0.75680000  0.57121003  0.40109770  1
  C  C123  1  0.75680000  0.67878997  0.26869950  1
  C  C124  1  0.82959998  0.61896998  0.42631162  1
  C  C125  1  0.82959998  0.63102996  0.29391342  1
  C  C126  1  0.99570000  0.66580999  0.43141160  1
  C  C127  1  0.99570000  0.58419001  0.29901340  1
  C  C128  1  0.09209999  0.66453999  0.41149096  1
  C  C129  1  0.09210000  0.58546001  0.27909276  1
  C  C130  1  0.01940000  0.61720002  0.38632207  1
  C  C131  1  0.01940000  0.63279998  0.51872027  1
  C  C132  1  0.60170001  0.49200499  0.33900560  1
  C  C133  1  0.60170001  0.75799501  0.47140380  1
  C  C134  1  0.58319998  0.44815493  0.31129465  1
  C  C135  1  0.58319998  0.80184501  0.44369285  1
  N  N136  1  0.78771001  0.52508003  0.35459151  1
  N  N137  1  0.78771001  0.72492003  0.48698972  1
  O  O138  1  0.05869997  0.71244502  0.45595026  1
  O  O139  1  0.05869999  0.53755498  0.32355207  1
  O  O140  1  0.45550001  0.49629498  0.34649668  1
  O  O141  1  0.45550004  0.75370502  0.47889490  1
  H  H142  1  0.62840003  0.53509998  0.39751237  1
  H  H143  1  0.62840003  0.71490002  0.26511417  1
  H  H144  1  0.75779998  0.61830002  0.44210408  1
  H  H145  1  0.75779998  0.63170004  0.30970588  1
  H  H146  1  0.22340000  0.69999999  0.41549204  1
  H  H147  1  0.22340000  0.55000001  0.28309384  1
  H  H148  1  0.09230000  0.61680001  0.37058257  1
  H  H149  1  0.09230004  0.63319999  0.50298079  1
  H  H150  1  0.20010003  0.73234999  0.46138127  1
  H  H151  1  0.20010000  0.51765001  0.32898305  1
  H  H152  1  0.89179993  0.52034998  0.34553283  1
  H  H153  1  0.89179999  0.72965002  0.47793101  1
  H  H154  1  0.43160000  0.45735002  0.29230875  1
  H  H155  1  0.43159997  0.79264998  0.42470696  1
  H  H156  1  0.70609999  0.46009994  0.30448939  1
  H  H157  1  0.70609999  0.78990000  0.43688759  1
  H  H158  1  0.59140003  0.39045000  0.31714666  1
  H  H159  1  0.59140003  0.85955000  0.44954486  1
